tests/src/test/resources/files/cases/epic93/3Nodes_connected.xiidm
<?xml version="1.0" encoding="UTF-8"?>
<iidm:network xmlns:iidm="http://www.powsybl.org/schema/iidm/1_14" id="3Nodes_gen" caseDate="2025-09-23T16:24:41.659+02:00" forecastDistance="0" sourceFormat="UCTE" minimumValidationLevel="STEADY_STATE_HYPOTHESIS">
    <iidm:substation id="FFR1AA" country="FR">
        <iidm:voltageLevel id="FFR1AA1" nominalV="380.0" topologyKind="BUS_BREAKER">
            <iidm:busBreakerTopology>
                <iidm:bus id="FFR1AA1 ">
                    <iidm:property name="geographicalName" value="FR1"/>
                </iidm:bus>
            </iidm:busBreakerTopology>
            <iidm:generator id="FFR1AA1 _generator" energySource="OTHER" minP="-9000.0" maxP="9000.0" voltageRegulatorOn="true" targetP="1000.0" targetV="400.0" targetQ="0.0" bus="FFR1AA1 " connectableBus="FFR1AA1 ">
                <iidm:property name="powerPlantType" value="F"/>
                <iidm:minMaxReactiveLimits minQ="-9000.0" maxQ="9000.0"/>
            </iidm:generator>
        </iidm:voltageLevel>
    </iidm:substation>
    <iidm:substation id="FFR2AA" country="FR">
        <iidm:voltageLevel id="FFR2AA1" nominalV="380.0" topologyKind="BUS_BREAKER">
            <iidm:busBreakerTopology>
                <iidm:bus id="FFR2AA1 ">
                    <iidm:property name="geographicalName" value="FR2"/>
                </iidm:bus>
            </iidm:busBreakerTopology>
            <iidm:generator id="FFR2AA1 _generator" energySource="OTHER" minP="-9000.0" maxP="9000.0" voltageRegulatorOn="true" targetP="-700.0" targetV="400.0" targetQ="0.0" bus="FFR2AA1 " connectableBus="FFR2AA1 ">
                <iidm:property name="powerPlantType" value="F"/>
                <iidm:minMaxReactiveLimits minQ="-9000.0" maxQ="9000.0"/>
            </iidm:generator>
        </iidm:voltageLevel>
    </iidm:substation>
    <iidm:substation id="FFR3AA" country="FR">
        <iidm:voltageLevel id="FFR3AA1" nominalV="380.0" topologyKind="BUS_BREAKER">
            <iidm:busBreakerTopology>
                <iidm:bus id="FFR3AA1 ">
                    <iidm:property name="geographicalName" value="FR2"/>
                </iidm:bus>
            </iidm:busBreakerTopology>
            <iidm:generator id="FFR3AA1 _generator" energySource="OTHER" minP="-9000.0" maxP="9000.0" voltageRegulatorOn="true" targetP="-300.0" targetV="400.0" targetQ="0.0" bus="FFR3AA1 " connectableBus="FFR3AA1 ">
                <iidm:property name="powerPlantType" value="F"/>
                <iidm:minMaxReactiveLimits minQ="-9000.0" maxQ="9000.0"/>
            </iidm:generator>
        </iidm:voltageLevel>
    </iidm:substation>
    <iidm:line id="FFR1AA1  FFR2AA1  1" r="0.0" x="10.0" g1="0.0" b1="0.0" g2="0.0" b2="0.0" voltageLevelId1="FFR1AA1" bus1="FFR1AA1 " connectableBus1="FFR1AA1 " voltageLevelId2="FFR2AA1" bus2="FFR2AA1 " connectableBus2="FFR2AA1 " selectedOperationalLimitsGroupId1="DEFAULT" selectedOperationalLimitsGroupId2="DEFAULT">
        <iidm:operationalLimitsGroup1 id="DEFAULT">
            <iidm:currentLimits permanentLimit="5000.0"/>
        </iidm:operationalLimitsGroup1>
        <iidm:operationalLimitsGroup2 id="DEFAULT">
            <iidm:currentLimits permanentLimit="5000.0"/>
        </iidm:operationalLimitsGroup2>
    </iidm:line>
    <iidm:line id="FFR1AA1  FFR3AA1  1" r="0.0" x="10.0" g1="0.0" b1="0.0" g2="0.0" b2="0.0" voltageLevelId1="FFR1AA1" bus1="FFR1AA1 " connectableBus1="FFR1AA1 " voltageLevelId2="FFR3AA1" bus2="FFR3AA1 " connectableBus2="FFR3AA1 " selectedOperationalLimitsGroupId1="DEFAULT" selectedOperationalLimitsGroupId2="DEFAULT">
        <iidm:operationalLimitsGroup1 id="DEFAULT">
            <iidm:currentLimits permanentLimit="5000.0"/>
        </iidm:operationalLimitsGroup1>
        <iidm:operationalLimitsGroup2 id="DEFAULT">
            <iidm:currentLimits permanentLimit="5000.0"/>
        </iidm:operationalLimitsGroup2>
    </iidm:line>
    <iidm:line id="FFR2AA1  FFR3AA1  1" r="0.0" x="10.0" g1="0.0" b1="0.0" g2="0.0" b2="0.0" voltageLevelId1="FFR2AA1" bus1="FFR2AA1 " connectableBus1="FFR2AA1 " voltageLevelId2="FFR3AA1" bus2="FFR3AA1 " connectableBus2="FFR3AA1 " selectedOperationalLimitsGroupId1="DEFAULT" selectedOperationalLimitsGroupId2="DEFAULT">
        <iidm:operationalLimitsGroup1 id="DEFAULT">
            <iidm:currentLimits permanentLimit="5000.0"/>
        </iidm:operationalLimitsGroup1>
        <iidm:operationalLimitsGroup2 id="DEFAULT">
            <iidm:currentLimits permanentLimit="5000.0"/>
        </iidm:operationalLimitsGroup2>
    </iidm:line>
    <iidm:area id="FR" areaType="ControlArea">
        <iidm:voltageLevelRef id="FFR1AA1"/>
        <iidm:voltageLevelRef id="FFR2AA1"/>
        <iidm:voltageLevelRef id="FFR3AA1"/>
    </iidm:area>
</iidm:network>
